@<TRIPOS>MOLECULE
*****
   46    48     0     0     0
SMALL
USER_CHARGES

@<TRIPOS>ATOM
      1 C1          8.7480   37.0356   25.8210 C.1       1 MOL         0.2094
      2 C2         10.4532   38.2425   27.0991 C.ar      1 MOL        -0.0884
      3 C3         10.8253   39.0727   28.1583 C.ar      1 MOL        -0.1075
      4 C4         12.1720   39.5724   31.0067 C.ar      1 MOL        -0.0885
      5 C5         10.3173   39.6045   32.5546 C.ar      1 MOL        -0.0885
      6 C6         12.9930   39.0412   32.0014 C.ar      1 MOL        -0.1662
      7 C7         11.1382   39.0732   33.5493 C.ar      1 MOL        -0.1662
      8 C8          8.1239   38.3540   27.7820 C.ar      1 MOL        -0.0683
      9 C9          9.1098   37.8846   26.9124 C.ar      1 MOL         0.0077
     10 C10        10.8341   39.8541   31.2833 C.ar      1 MOL        -0.1239
     11 C11         9.8374   39.5280   29.0191 C.ar      1 MOL        -0.1098
     12 C12         8.5089   39.1730   28.8295 C.ar      1 MOL        -0.1240
     13 C13        12.4761   38.7916   33.2727 C.ar      1 MOL         0.1500
     14 C14         7.6660   39.8096   29.8668 C.3       1 MOL         0.1715
     15 C15         9.9549   40.4219   30.2192 C.3       1 MOL         0.2630
     16 C16        12.6267   45.4879   29.7976 C.3       1 MOL         0.0794
     17 C17        13.0423   43.4843   31.2166 C.3       1 MOL         0.0794
     18 C18        10.3734   41.8433   29.8618 C.3       1 MOL        -0.0828
     19 C19        10.2546   42.7774   31.0637 C.3       1 MOL        -0.1148
     20 C20        10.7082   44.1845   30.7044 C.3       1 MOL         0.1124
     21 N1          8.4544   36.3461   24.9349 N.1       1 MOL        -0.3167
     22 N2         12.1099   44.1352   30.2238 N.4       1 MOL        -0.6798
     23 O1          8.5971   40.4613   30.7625 O.3       1 MOL        -0.4263
     24 F1         13.2637   38.2789   34.2272 F         1 MOL        -0.1238
     25 H1         11.2215   37.8791   26.4201 H         1 MOL         0.1594
     26 H2         11.8646   39.3504   28.2985 H         1 MOL         0.1478
     27 H3         12.5839   39.7642   30.0194 H         1 MOL         0.1402
     28 H4          9.2760   39.8206   32.7792 H         1 MOL         0.1402
     29 H5         14.0342   38.8212   31.7860 H         1 MOL         0.1608
     30 H6         10.7363   38.8792   34.5393 H         1 MOL         0.1608
     31 H7          7.0789   38.0905   27.6478 H         1 MOL         0.1630
     32 H8          7.0045   40.5701   29.4423 H         1 MOL         0.0709
     33 H9          7.0903   39.0781   30.4401 H         1 MOL         0.0709
     34 H10        12.6133   46.1411   30.6720 H         1 MOL         0.1069
     35 H11        13.6432   45.3543   29.4228 H         1 MOL         0.1069
     36 H12        11.9664   45.8663   29.0149 H         1 MOL         0.1069
     37 H13        13.0387   44.0900   32.1247 H         1 MOL         0.1069
     38 H14        12.6696   42.4776   31.4147 H         1 MOL         0.1069
     39 H15        14.0377   43.4534   30.7695 H         1 MOL         0.1069
     40 H16        11.4064   41.8293   29.4987 H         1 MOL         0.0637
     41 H17         9.7432   42.2044   29.0423 H         1 MOL         0.0637
     42 H18         9.2144   42.7994   31.4121 H         1 MOL         0.0814
     43 H19        10.8617   42.3910   31.8919 H         1 MOL         0.0814
     44 H20        10.1101   44.6141   29.8954 H         1 MOL         0.1028
     45 H21        10.6927   44.8537   31.5697 H         1 MOL         0.1028
     46 H22        12.1345   43.5407   29.3773 H         1 MOL         0.4515
@<TRIPOS>BOND
     1    1    9 1
     2    1   21 3
     3    2    3 ar
     4    2    9 ar
     5    3   11 ar
     6    4    6 ar
     7    4   10 ar
     8    5    7 ar
     9    5   10 ar
    10    6   13 ar
    11    7   13 ar
    12    8    9 ar
    13    8   12 ar
    14   10   15 1
    15   11   12 ar
    16   11   15 1
    17   12   14 1
    18   13   24 1
    19   14   23 1
    20   15   18 1
    21   15   23 1
    22   16   22 1
    23   17   22 1
    24   18   19 1
    25   19   20 1
    26   20   22 1
    27    2   25 1
    28    3   26 1
    29    4   27 1
    30    5   28 1
    31    6   29 1
    32    7   30 1
    33    8   31 1
    34   14   32 1
    35   14   33 1
    36   16   34 1
    37   16   35 1
    38   16   36 1
    39   17   37 1
    40   17   38 1
    41   17   39 1
    42   18   40 1
    43   18   41 1
    44   19   42 1
    45   19   43 1
    46   20   44 1
    47   20   45 1
    48   22   46 1
@<TRIPOS>MOLECULE
*****
   47    51     0     0     0
SMALL
USER_CHARGES

@<TRIPOS>ATOM
      1 C1         10.7109   41.6219   31.1336 C.ar      1 MOL        -0.1335
      2 C2         10.0786   41.4027   29.9118 C.ar      1 MOL        -0.0634
      3 C3         10.9578   40.5548   31.9958 C.ar      1 MOL        -0.0862
      4 C4          9.6887   40.1087   29.5506 C.ar      1 MOL        -0.1579
      5 C5         10.5859   39.2500   31.6420 C.ar      1 MOL        -0.0694
      6 C6          9.9394   39.0265   30.4116 C.ar      1 MOL        -0.0411
      7 C7          9.0118   39.8900   28.2428 C.2       1 MOL         0.7351
      8 C8         10.8238   38.1314   32.6261 C.3       1 MOL        -0.0406
      9 C9         10.6859   36.7376   32.0166 C.3       1 MOL        -0.0775
     10 C10         9.4408   36.6545   31.1407 C.3       1 MOL        -0.0730
     11 C11         9.0130   36.3581   26.1777 C.3       1 MOL        -0.0979
     12 C12         7.7065   37.6153   24.4748 C.3       1 MOL        -0.0979
     13 C13         8.2714   37.6942   29.1628 C.3       1 MOL         0.0987
     14 C14         7.8089   35.4524   26.4365 C.3       1 MOL         0.1135
     15 C15         6.4966   36.7161   24.7356 C.3       1 MOL         0.1135
     16 C16         6.4578   37.4277   27.1283 C.3       1 MOL         0.0983
     17 C17         9.5655   37.6322   29.9677 C.3       1 MOL        -0.0357
     18 C18         8.5500   37.7650   25.7537 C.3       1 MOL        -0.1010
     19 C19         7.6417   38.3644   26.8505 C.3       1 MOL         0.1205
     20 N1          8.3844   38.6534   28.0673 N.am      1 MOL        -0.4890
     21 N2          6.5485   36.2497   26.1763 N.4       1 MOL        -0.6830
     22 O1          9.0381   40.7860   27.4022 O.2       1 MOL        -0.6607
     23 H1         11.0071   42.6275   31.4179 H         1 MOL         0.1511
     24 H2          9.8925   42.2522   29.2603 H         1 MOL         0.1621
     25 H3         11.4415   40.7464   32.9506 H         1 MOL         0.1497
     26 H4         11.8245   38.2266   33.0642 H         1 MOL         0.0646
     27 H5         10.0955   38.2392   33.4400 H         1 MOL         0.0646
     28 H6         11.5736   36.5058   31.4144 H         1 MOL         0.0556
     29 H7         10.6379   35.9895   32.8158 H         1 MOL         0.0556
     30 H8          9.3209   35.6327   30.7619 H         1 MOL         0.0499
     31 H9          8.5522   36.8811   31.7441 H         1 MOL         0.0499
     32 H10         9.6387   36.4087   27.0764 H         1 MOL         0.0895
     33 H11         9.6422   35.9166   25.3950 H         1 MOL         0.0895
     34 H12         8.3136   37.1915   23.6658 H         1 MOL         0.0895
     35 H13         7.3680   38.5974   24.1233 H         1 MOL         0.0895
     36 H14         8.0420   36.7056   28.7485 H         1 MOL         0.0444
     37 H15         7.4241   38.0110   29.7836 H         1 MOL         0.0444
     38 H16         7.7930   34.5845   25.7691 H         1 MOL         0.1029
     39 H17         7.7692   35.1030   27.4734 H         1 MOL         0.1029
     40 H18         5.5491   37.2469   24.5960 H         1 MOL         0.1029
     41 H19         6.5004   35.8240   24.1008 H         1 MOL         0.1029
     42 H20         6.4447   37.0206   28.1453 H         1 MOL         0.1115
     43 H21         5.4981   37.9195   26.9354 H         1 MOL         0.1115
     44 H22        10.3755   37.2832   29.3109 H         1 MOL         0.0742
     45 H23         9.4176   38.4074   25.5658 H         1 MOL         0.1166
     46 H24         7.2569   39.3349   26.5144 H         1 MOL         0.0979
     47 H25         5.7394   35.6372   26.3456 H         1 MOL         0.4553
@<TRIPOS>BOND
     1    1    2 ar
     2    1    3 ar
     3    2    4 ar
     4    3    5 ar
     5    4    6 ar
     6    4    7 1
     7    5    6 ar
     8    5    8 1
     9    6   17 1
    10    7   20 am
    11    7   22 2
    12    8    9 1
    13    9   10 1
    14   10   17 1
    15   11   14 1
    16   11   18 1
    17   12   15 1
    18   12   18 1
    19   13   17 1
    20   13   20 1
    21   14   21 1
    22   15   21 1
    23   16   19 1
    24   16   21 1
    25   18   19 1
    26   19   20 1
    27    1   23 1
    28    2   24 1
    29    3   25 1
    30    8   26 1
    31    8   27 1
    32    9   28 1
    33    9   29 1
    34   10   30 1
    35   10   31 1
    36   11   32 1
    37   11   33 1
    38   12   34 1
    39   12   35 1
    40   13   36 1
    41   13   37 1
    42   14   38 1
    43   14   39 1
    44   15   40 1
    45   15   41 1
    46   16   42 1
    47   16   43 1
    48   17   44 1
    49   18   45 1
    50   19   46 1
    51   21   47 1
@<TRIPOS>MOLECULE
*****
   49    52     0     0     0
SMALL
USER_CHARGES

@<TRIPOS>ATOM
      1 C1         11.9461   40.4393   33.0356 C.ar      1 MOL        -0.1176
      2 C2         12.0032   41.7077   32.4527 C.ar      1 MOL        -0.1556
      3 C3         11.2160   37.0578   30.7330 C.ar      1 MOL        -0.2406
      4 C4         11.5693   40.7278   30.3013 C.ar      1 MOL        -0.2228
      5 C5         11.4145   37.0064   32.0978 C.ar      1 MOL         0.3938
      6 C6         11.5119   39.4522   30.8879 C.ar      1 MOL        -0.0898
      7 C7         11.2667   38.3033   30.1238 C.ar      1 MOL        -0.1348
      8 C8         11.7023   39.2977   32.2771 C.ar      1 MOL         0.3646
      9 C9         11.8145   41.8525   31.0838 C.ar      1 MOL         0.1675
     10 C10         7.3493   35.1788   27.7167 C.2       1 MOL        -0.1590
     11 C11         6.8437   36.0726   26.8600 C.2       1 MOL        -0.2124
     12 C12         8.4148   39.5308   26.2065 C.3       1 MOL        -0.0986
     13 C13         9.6174   37.4247   26.7236 C.3       1 MOL        -0.0885
     14 C14         8.5709   39.9728   27.6610 C.3       1 MOL         0.1142
     15 C15         7.2385   38.0137   28.4080 C.3       1 MOL         0.1152
     16 C16         7.0875   37.5502   26.9471 C.3       1 MOL        -0.0395
     17 C17         8.3186   37.9962   26.1187 C.3       1 MOL        -0.0712
     18 C18         9.7075   37.7733   28.2168 C.3       1 MOL         0.0970
     19 C19        12.1239   44.1922   31.3771 C.3       1 MOL         0.1085
     20 C20        11.0498   38.3606   28.6306 C.3       1 MOL         0.1868
     21 N1         11.6538   38.0902   32.8710 N.ar      1 MOL        -0.6043
     22 N2          8.5717   38.7378   28.5426 N.4       1 MOL        -0.6828
     23 O1         12.0922   37.6222   27.9965 O.3       1 MOL        -0.5713
     24 O2         11.8689   43.0856   30.5126 O.3       1 MOL        -0.3151
     25 H1         12.0967   40.3531   34.1102 H         1 MOL         0.1723
     26 H2         12.1962   42.5762   33.0765 H         1 MOL         0.1663
     27 H3         11.0284   36.1520   30.1670 H         1 MOL         0.1370
     28 H4         11.4245   40.8627   29.2317 H         1 MOL         0.1386
     29 H5         11.3856   36.0604   32.6286 H         1 MOL         0.0432
     30 H6          7.1350   34.1223   27.5984 H         1 MOL         0.1317
     31 H7          7.9812   35.4808   28.5448 H         1 MOL         0.1317
     32 H8          6.2158   35.7209   26.0461 H         1 MOL         0.1319
     33 H9          7.5209   39.9945   25.7721 H         1 MOL         0.0862
     34 H10         9.2656   39.8941   25.6173 H         1 MOL         0.0862
     35 H11         9.6525   36.3356   26.6011 H         1 MOL         0.0910
     36 H12        10.4834   37.8161   26.1749 H         1 MOL         0.0910
     37 H13         9.5025   40.5178   27.8358 H         1 MOL         0.1016
     38 H14         7.7381   40.6051   27.9870 H         1 MOL         0.1016
     39 H15         6.4579   38.7294   28.6890 H         1 MOL         0.0998
     40 H16         7.2395   37.1994   29.1412 H         1 MOL         0.0998
     41 H17         6.1933   38.0310   26.5288 H         1 MOL         0.0881
     42 H18         8.2223   37.6883   25.0712 H         1 MOL         0.1116
     43 H19         9.5247   36.8784   28.8245 H         1 MOL         0.0985
     44 H20        12.1412   45.1155   30.7930 H         1 MOL         0.0554
     45 H21        13.0834   44.0489   31.8805 H         1 MOL         0.0554
     46 H22        11.3283   44.2508   32.1236 H         1 MOL         0.0554
     47 H23        11.1121   39.3916   28.2628 H         1 MOL         0.0955
     48 H24         8.6682   39.0395   29.5217 H         1 MOL         0.4583
     49 H25        12.0279   36.7139   28.3294 H         1 MOL         0.4279
@<TRIPOS>BOND
     1    1    2 ar
     2    1    8 ar
     3    2    9 ar
     4    3    5 ar
     5    3    7 ar
     6    4    6 ar
     7    4    9 ar
     8    5   21 ar
     9    6    7 ar
    10    6    8 ar
    11    7   20 1
    12    8   21 ar
    13    9   24 1
    14   10   11 2
    15   11   16 1
    16   12   14 1
    17   12   17 1
    18   13   17 1
    19   13   18 1
    20   14   22 1
    21   15   16 1
    22   15   22 1
    23   16   17 1
    24   18   20 1
    25   18   22 1
    26   19   24 1
    27   20   23 1
    28    1   25 1
    29    2   26 1
    30    3   27 1
    31    4   28 1
    32    5   29 1
    33   10   30 1
    34   10   31 1
    35   11   32 1
    36   12   33 1
    37   12   34 1
    38   13   35 1
    39   13   36 1
    40   14   37 1
    41   14   38 1
    42   15   39 1
    43   15   40 1
    44   16   41 1
    45   17   42 1
    46   18   43 1
    47   19   44 1
    48   19   45 1
    49   19   46 1
    50   20   47 1
    51   22   48 1
    52   23   49 1
@<TRIPOS>MOLECULE
*****
   31    32     0     0     0
SMALL
USER_CHARGES

@<TRIPOS>ATOM
      1 C1          7.6218   38.9882   29.9392 C.3       1 MOL        -0.0918
      2 C2          8.5485   40.1100   30.4367 C.3       1 MOL        -0.0948
      3 C3          8.9975   37.2756   31.0871 C.3       1 MOL        -0.0963
      4 C4          8.5989   37.8166   29.6912 C.3       1 MOL        -0.0647
      5 C5          9.9707   38.3528   31.5941 C.3       1 MOL         0.1035
      6 C6          9.9433   39.4233   30.4621 C.3       1 MOL        -0.0650
      7 C7          9.8866   38.5220   29.1843 C.3       1 MOL        -0.0359
      8 C8         11.0865   40.4190   30.5391 C.3       1 MOL        -0.0967
      9 C9         11.0848   37.5715   28.9814 C.3       1 MOL        -0.0946
     10 C10         9.7096   39.2671   27.8451 C.3       1 MOL        -0.0946
     11 N1          9.5506   38.8685   32.9136 N.4       1 MOL        -0.8344
     12 H1          6.8507   38.7417   30.6767 H         1 MOL         0.0662
     13 H2          7.1101   39.2862   29.0180 H         1 MOL         0.0662
     14 H3          8.5273   40.9604   29.7457 H         1 MOL         0.0552
     15 H4          8.2316   40.5027   31.4067 H         1 MOL         0.0552
     16 H5          8.1286   37.1229   31.7366 H         1 MOL         0.0757
     17 H6          9.5087   36.3110   30.9959 H         1 MOL         0.0757
     18 H7          8.1902   37.0466   29.0327 H         1 MOL         0.1060
     19 H8         10.9747   37.9439   31.7486 H         1 MOL         0.1112
     20 H9         12.0444   39.8950   30.5547 H         1 MOL         0.0572
     21 H10        11.0032   41.0213   31.4461 H         1 MOL         0.0572
     22 H11        11.0669   41.0853   29.6742 H         1 MOL         0.0572
     23 H12        11.9346   38.1441   28.6290 H         1 MOL         0.0523
     24 H13        10.8185   36.8184   28.2493 H         1 MOL         0.0523
     25 H14        11.3250   37.0987   29.9264 H         1 MOL         0.0523
     26 H15        10.6513   39.7265   27.5688 H         1 MOL         0.0523
     27 H16         8.9481   40.0290   27.9623 H         1 MOL         0.0523
     28 H17         9.4077   38.5581   27.0832 H         1 MOL         0.0523
     29 H18         8.8028   38.2914   33.3185 H         1 MOL         0.4563
     30 H19         9.1965   39.8308   32.8417 H         1 MOL         0.4563
     31 H20        10.3343   38.8739   33.5785 H         1 MOL         0.4563
@<TRIPOS>BOND
     1    1    2 1
     2    1    4 1
     3    2    6 1
     4    3    4 1
     5    3    5 1
     6    4    7 1
     7    5    6 1
     8    5   11 1
     9    6    7 1
    10    6    8 1
    11    7    9 1
    12    7   10 1
    13    1   12 1
    14    1   13 1
    15    2   14 1
    16    2   15 1
    17    3   16 1
    18    3   17 1
    19    4   18 1
    20    5   19 1
    21    8   20 1
    22    8   21 1
    23    8   22 1
    24    9   23 1
    25    9   24 1
    26    9   25 1
    27   10   26 1
    28   10   27 1
    29   10   28 1
    30   11   29 1
    31   11   30 1
    32   11   31 1
@<TRIPOS>MOLECULE
*****
   24    24     0     0     0
SMALL
USER_CHARGES

@<TRIPOS>ATOM
      1 C1         10.6058   37.5794   28.9609 C.3       1 MOL        -0.0870
      2 C2         10.5119   36.2934   29.7799 C.3       1 MOL        -0.0870
      3 C3          9.3924   37.8800   28.0825 C.3       1 MOL        -0.0850
      4 C4          9.4694   36.2722   30.9093 C.3       1 MOL        -0.0850
      5 C5          8.0313   37.4741   28.6432 C.3       1 MOL        -0.1035
      6 C6          8.7260   37.5840   31.1542 C.3       1 MOL        -0.1035
      7 C7          7.7119   37.9432   30.0628 C.3       1 MOL         0.1326
      8 N1          7.5321   39.4242   30.0628 N.4       1 MOL        -0.8462
      9 H1         10.7406   38.4132   29.6596 H         1 MOL         0.0598
     10 H2         11.5105   37.5492   28.3432 H         1 MOL         0.0598
     11 H3         10.2793   35.4694   29.0871 H         1 MOL         0.0598
     12 H4         11.5036   36.0556   30.1963 H         1 MOL         0.0598
     13 H5          9.3936   38.9505   27.7735 H         1 MOL         0.0617
     14 H6          9.5381   37.3232   27.1298 H         1 MOL         0.0617
     15 H7          8.7561   35.4337   30.7616 H         1 MOL         0.0617
     16 H8         10.0134   36.0162   31.8421 H         1 MOL         0.0617
     17 H9          7.2479   37.8400   27.9582 H         1 MOL         0.0751
     18 H10         7.9394   36.3757   28.6052 H         1 MOL         0.0751
     19 H11         8.1787   37.4999   32.1002 H         1 MOL         0.0751
     20 H12         9.4493   38.3938   31.2991 H         1 MOL         0.0751
     21 H13         6.7242   37.5401   30.3434 H         1 MOL         0.1041
     22 H14         6.7306   39.6833   30.6397 H         1 MOL         0.4579
     23 H15         7.3727   39.7607   29.1119 H         1 MOL         0.4579
     24 H16         8.3651   39.8816   30.4361 H         1 MOL         0.4579
@<TRIPOS>BOND
     1    1    2 1
     2    1    3 1
     3    2    4 1
     4    3    5 1
     5    4    6 1
     6    5    7 1
     7    6    7 1
     8    7    8 1
     9    1    9 1
    10    1   10 1
    11    2   11 1
    12    2   12 1
    13    3   13 1
    14    3   14 1
    15    4   15 1
    16    4   16 1
    17    5   17 1
    18    5   18 1
    19    6   19 1
    20    6   20 1
    21    7   21 1
    22    8   22 1
    23    8   23 1
    24    8   24 1
@<TRIPOS>MOLECULE
*****
   27    27     0     0     0
SMALL
USER_CHARGES

@<TRIPOS>ATOM
      1 C1          8.8500   38.0825   30.7142 C.3       1 MOL        -0.0847
      2 C2          7.8403   38.7781   29.8045 C.3       1 MOL        -0.0843
      3 C3          9.0583   36.6062   30.3919 C.3       1 MOL        -0.0843
      4 C4          7.9395   38.4983   28.3046 C.3       1 MOL        -0.0789
      5 C5         10.4378   36.2648   29.8329 C.3       1 MOL        -0.0789
      6 C6          9.3041   38.7627   27.6700 C.3       1 MOL        -0.1036
      7 C7         11.0726   37.2236   28.8223 C.3       1 MOL        -0.1036
      8 C8         10.3039   37.6022   27.5555 C.3       1 MOL         0.1372
      9 N1          9.6793   36.4065   26.9370 N.4       1 MOL        -0.8504
     10 H1          9.8045   38.6136   30.7412 H         1 MOL         0.0557
     11 H2          8.4537   38.1264   31.7353 H         1 MOL         0.0557
     12 H3          6.8065   38.6072   30.1571 H         1 MOL         0.0565
     13 H4          7.9738   39.8715   29.9255 H         1 MOL         0.0565
     14 H5          8.9287   36.0440   31.3165 H         1 MOL         0.0565
     15 H6          8.2874   36.2668   29.7025 H         1 MOL         0.0565
     16 H7          7.6301   37.4725   28.1157 H         1 MOL         0.0585
     17 H8          7.2168   39.1382   27.7969 H         1 MOL         0.0585
     18 H9         11.1447   36.0412   30.6671 H         1 MOL         0.0585
     19 H10        10.3311   35.2795   29.3218 H         1 MOL         0.0585
     20 H11         9.1171   39.1420   26.6517 H         1 MOL         0.0704
     21 H12         9.7887   39.6069   28.1811 H         1 MOL         0.0704
     22 H13        11.2776   38.1821   29.3649 H         1 MOL         0.0704
     23 H14        12.1106   36.8817   28.5741 H         1 MOL         0.0704
     24 H15        11.0703   37.9374   26.8017 H         1 MOL         0.1073
     25 H16         8.8606   36.1130   27.4740 H         1 MOL         0.4569
     26 H17        10.3443   35.6305   26.9100 H         1 MOL         0.4569
     27 H18         9.3828   36.6128   25.9807 H         1 MOL         0.4569
@<TRIPOS>BOND
     1    1    2 1
     2    1    3 1
     3    2    4 1
     4    3    5 1
     5    4    6 1
     6    5    7 1
     7    6    8 1
     8    7    8 1
     9    8    9 1
    10    1   10 1
    11    1   11 1
    12    2   12 1
    13    2   13 1
    14    3   14 1
    15    3   15 1
    16    4   16 1
    17    4   17 1
    18    5   18 1
    19    5   19 1
    20    6   20 1
    21    6   21 1
    22    7   22 1
    23    7   23 1
    24    8   24 1
    25    9   25 1
    26    9   26 1
    27    9   27 1
@<TRIPOS>MOLECULE
*****
   39    39     0     0     0
SMALL
USER_CHARGES

@<TRIPOS>ATOM
      1 C1          7.5951   38.8097   27.5577 C.3       1 MOL        -0.0795
      2 C2          8.2625   40.0791   27.0218 C.3       1 MOL        -0.0808
      3 C3          7.5006   38.7668   29.0851 C.3       1 MOL        -0.0808
      4 C4          9.6838   40.4013   27.5173 C.3       1 MOL        -0.0821
      5 C5          7.2118   37.3540   29.6018 C.3       1 MOL        -0.0821
      6 C6         10.7728   39.3649   27.2027 C.3       1 MOL        -0.0800
      7 C7          7.5410   37.1562   31.0900 C.3       1 MOL        -0.0800
      8 C8         10.9069   38.1787   28.1679 C.3       1 MOL        -0.0853
      9 C9          8.9839   37.4870   31.5080 C.3       1 MOL        -0.0853
     10 C10        11.3464   38.5621   29.5876 C.3       1 MOL        -0.1115
     11 C11        10.0594   36.6436   30.8040 C.3       1 MOL        -0.1115
     12 C12        11.3997   37.3573   30.5458 C.3       1 MOL         0.1325
     13 N1         11.9580   37.8261   31.8490 N.4       1 MOL        -0.8490
     14 H1          6.5785   38.7560   27.1459 H         1 MOL         0.0445
     15 H2          8.1179   37.9306   27.1723 H         1 MOL         0.0445
     16 H3          8.2781   40.0306   25.9161 H         1 MOL         0.0462
     17 H4          7.6149   40.9437   27.2627 H         1 MOL         0.0462
     18 H5          8.3986   39.1495   29.5423 H         1 MOL         0.0462
     19 H6          6.6826   39.4145   29.3947 H         1 MOL         0.0462
     20 H7          9.9932   41.3617   27.0569 H         1 MOL         0.0494
     21 H8          9.6418   40.6350   28.5958 H         1 MOL         0.0494
     22 H9          6.1694   37.1177   29.4313 H         1 MOL         0.0494
     23 H10         7.8121   36.6579   29.0273 H         1 MOL         0.0494
     24 H11        10.6745   38.9819   26.1691 H         1 MOL         0.0501
     25 H12        11.7470   39.8965   27.1812 H         1 MOL         0.0501
     26 H13         6.8991   37.8484   31.6473 H         1 MOL         0.0501
     27 H14         7.2554   36.1618   31.4327 H         1 MOL         0.0501
     28 H15         9.9466   37.6621   28.2156 H         1 MOL         0.0537
     29 H16        11.6295   37.4692   27.7600 H         1 MOL         0.0537
     30 H17         9.1795   38.5315   31.2990 H         1 MOL         0.0537
     31 H18         9.0693   37.3433   32.5775 H         1 MOL         0.0537
     32 H19        12.3236   39.0432   29.5397 H         1 MOL         0.0772
     33 H20        10.6561   39.3071   29.9783 H         1 MOL         0.0772
     34 H21        10.2257   35.7383   31.4037 H         1 MOL         0.0772
     35 H22         9.6479   36.2780   29.8501 H         1 MOL         0.0772
     36 H23        12.1391   36.6290   30.1902 H         1 MOL         0.1101
     37 H24        11.6578   38.7844   32.0465 H         1 MOL         0.4566
     38 H25        12.9813   37.8078   31.8302 H         1 MOL         0.4566
     39 H26        11.6401   37.2258   32.6147 H         1 MOL         0.4566
@<TRIPOS>BOND
     1    1    2 1
     2    1    3 1
     3    2    4 1
     4    3    5 1
     5    4    6 1
     6    5    7 1
     7    6    8 1
     8    7    9 1
     9    8   10 1
    10    9   11 1
    11   10   12 1
    12   11   12 1
    13   12   13 1
    14    1   14 1
    15    1   15 1
    16    2   16 1
    17    2   17 1
    18    3   18 1
    19    3   19 1
    20    4   20 1
    21    4   21 1
    22    5   22 1
    23    5   23 1
    24    6   24 1
    25    6   25 1
    26    7   26 1
    27    7   27 1
    28    8   28 1
    29    8   29 1
    30    9   30 1
    31    9   31 1
    32   10   32 1
    33   10   33 1
    34   11   34 1
    35   11   35 1
    36   12   36 1
    37   13   37 1
    38   13   38 1
    39   13   39 1
@<TRIPOS>MOLECULE
*****
   26    28     0     0     0
SMALL
USER_CHARGES

@<TRIPOS>ATOM
      1 C1          9.7901   37.8639   28.9083 C.3       1 MOL        -0.0830
      2 C2          7.7302   38.8831   29.9557 C.3       1 MOL        -0.0860
      3 C3          8.2878   36.5265   30.4359 C.3       1 MOL        -0.0860
      4 C4          9.8046   39.5529   30.7890 C.3       1 MOL        -0.0924
      5 C5         10.3661   37.1795   31.2726 C.3       1 MOL        -0.0924
      6 C6          9.1498   39.1745   29.4566 C.3       1 MOL        -0.0609
      7 C7          9.7319   36.7136   29.9580 C.3       1 MOL        -0.0609
      8 C8          8.0159   37.8897   31.0950 C.3       1 MOL        -0.0704
      9 C9          9.4196   38.3306   31.6292 C.3       1 MOL         0.0826
     10 N1          9.4274   38.6243   33.0612 N.4       1 MOL        -0.8223
     11 H1          9.2610   37.5535   27.9994 H         1 MOL         0.0720
     12 H2         10.8345   38.0552   28.6349 H         1 MOL         0.0720
     13 H3          7.2586   39.7926   30.3473 H         1 MOL         0.0738
     14 H4          7.0809   38.4751   29.1744 H         1 MOL         0.0738
     15 H5          7.5973   36.2918   29.6194 H         1 MOL         0.0738
     16 H6          8.2219   35.7206   31.1769 H         1 MOL         0.0738
     17 H7         10.8864   39.6970   30.6987 H         1 MOL         0.0720
     18 H8          9.3725   40.4787   31.1892 H         1 MOL         0.0720
     19 H9         10.3417   36.3805   32.0242 H         1 MOL         0.0720
     20 H10        11.4075   37.4941   31.1474 H         1 MOL         0.0720
     21 H11         9.1832   39.9828   28.7215 H         1 MOL         0.1002
     22 H12        10.1750   35.7904   29.5757 H         1 MOL         0.1002
     23 H13         7.2111   37.8498   31.8335 H         1 MOL         0.0744
     24 H14        10.2301   38.1867   33.5433 H         1 MOL         0.4565
     25 H15         8.5738   38.2809   33.5324 H         1 MOL         0.4565
     26 H16         9.4839   39.6391   33.2495 H         1 MOL         0.4565
@<TRIPOS>BOND
     1    1    6 1
     2    1    7 1
     3    2    6 1
     4    2    8 1
     5    3    7 1
     6    3    8 1
     7    4    6 1
     8    4    9 1
     9    5    7 1
    10    5    9 1
    11    8    9 1
    12    9   10 1
    13    1   11 1
    14    1   12 1
    15    2   13 1
    16    2   14 1
    17    3   15 1
    18    3   16 1
    19    4   17 1
    20    4   18 1
    21    5   19 1
    22    5   20 1
    23    6   21 1
    24    7   22 1
    25    8   23 1
    26   10   24 1
    27   10   25 1
    28   10   26 1
@<TRIPOS>MOLECULE
*****
   30    32     0     0     0
SMALL
USER_CHARGES

@<TRIPOS>ATOM
      1 C1          8.5986   38.9648   29.6649 C.3       1 MOL        -0.0860
      2 C2         11.0737   38.5652   29.7949 C.3       1 MOL        -0.0946
      3 C3          9.5400   37.5533   31.5153 C.3       1 MOL        -0.0946
      4 C4          9.7230   37.4979   27.9704 C.3       1 MOL        -0.0979
      5 C5          8.1925   36.4905   29.6852 C.3       1 MOL        -0.0979
      6 C6         10.6696   36.0828   29.8156 C.3       1 MOL        -0.1330
      7 C7          9.8814   38.7575   28.8386 C.3       1 MOL        -0.0548
      8 C8          8.3417   37.7427   30.5658 C.3       1 MOL        -0.0548
      9 C9         10.8199   37.3387   30.6885 C.3       1 MOL         0.1442
     10 C10         9.4744   36.2677   28.8614 C.3       1 MOL         0.1707
     11 N1         11.9710   37.1587   31.6087 N.4       1 MOL        -0.8470
     12 O1          9.3289   35.1202   28.0373 O.3       1 MOL        -0.5678
     13 H1          8.6915   39.8689   30.2790 H         1 MOL         0.0702
     14 H2          7.7442   39.1207   28.9947 H         1 MOL         0.0702
     15 H3         11.9962   38.4357   29.2145 H         1 MOL         0.0656
     16 H4         11.2073   39.4673   30.4059 H         1 MOL         0.0656
     17 H5          9.6419   38.4338   32.1628 H         1 MOL         0.0656
     18 H6          9.3577   36.6945   32.1741 H         1 MOL         0.0656
     19 H7          8.8945   37.6236   27.2613 H         1 MOL         0.0767
     20 H8         10.6183   37.3425   27.3545 H         1 MOL         0.0767
     21 H9          7.9845   35.6095   30.3060 H         1 MOL         0.0767
     22 H10         7.3280   36.5924   29.0164 H         1 MOL         0.0767
     23 H11        11.5834   35.8909   29.2370 H         1 MOL         0.0711
     24 H12        10.5198   35.1880   30.4349 H         1 MOL         0.0711
     25 H13        10.0559   39.6298   28.1993 H         1 MOL         0.0908
     26 H14         7.4273   37.8977   31.1490 H         1 MOL         0.0908
     27 H15        11.7022   36.6017   32.4263 H         1 MOL         0.4549
     28 H16        12.3172   38.0644   31.9421 H         1 MOL         0.4549
     29 H17        12.7442   36.6776   31.1376 H         1 MOL         0.4549
     30 H18         9.1741   34.3663   28.6297 H         1 MOL         0.4156
@<TRIPOS>BOND
     1    1    7 1
     2    1    8 1
     3    2    7 1
     4    2    9 1
     5    3    8 1
     6    3    9 1
     7    4    7 1
     8    4   10 1
     9    5    8 1
    10    5   10 1
    11    6    9 1
    12    6   10 1
    13    9   11 1
    14   10   12 1
    15    1   13 1
    16    1   14 1
    17    2   15 1
    18    2   16 1
    19    3   17 1
    20    3   18 1
    21    4   19 1
    22    4   20 1
    23    5   21 1
    24    5   22 1
    25    6   23 1
    26    6   24 1
    27    7   25 1
    28    8   26 1
    29   11   27 1
    30   11   28 1
    31   11   29 1
    32   12   30 1
